/*--------------------------------*- C++ -*----------------------------------*\
| =========                 |                                                 |
| \\      /  F ield         | OpenFOAM: The Open Source CFD Toolbox           |
|  \\    /   O peration     | Version:  2312                                  |
|   \\  /    A nd           | Website:  www.openfoam.com                      |
|    \\/     M anipulation  |                                                 |
\*---------------------------------------------------------------------------*/
FoamFile
{
    version     2.0;
    format      ascii;
    arch        "LSB;label=32;scalar=64";
    class       volScalarField;
    location    "0/fluid-domena";
    object      rhoa;
}
// * * * * * * * * * * * * * * * * * * * * * * * * * * * * * * * * * * * * * //

dimensions      [ 1 -3 0 0 0 0 0 ];

internalField   uniform 711;

boundaryField
{
    inlet
    {
        type            fixedValue;
        value           uniform 711;
    }
    outlet
    {
        type            fixedValue;
        value           uniform 711;
    }
    intersection-wall
    {
        type            compressible::thermalBaffle;
        value           uniform 711;
    }
}


// ************************************************************************* //
