/*--------------------------------*- C++ -*----------------------------------*\
| =========                 |                                                 |
| \\      /  F ield         | OpenFOAM: The Open Source CFD Toolbox           |
|  \\    /   O peration     | Version:  2412                                  |
|   \\  /    A nd           | Website:  www.openfoam.com                      |
|    \\/     M anipulation  |                                                 |
\*---------------------------------------------------------------------------*/
FoamFile
{
    version     2.0;
    format      ascii;
    arch        "LSB;label=32;scalar=64";
    class       volVectorField;
    location    "0/fluid-domena";
    object      U;
}
// * * * * * * * * * * * * * * * * * * * * * * * * * * * * * * * * * * * * * //

dimensions      [ 0 1 -1 0 0 0 0 ];

internalField   uniform ( 0 0 0 );

boundaryField
{

    inlet
    {
        type            flowRateInletVelocity;
        massFlowRate    constant 0.0292;
        rho             asdasdas;
        rhoInlet        786.0;
        value           uniform (0 0 0);

        // volumetricFlowRate    constant 0.00003715;
        // type            flowRateInletVelocity;

        // type            fixedValue;
        // value           uniform ( 0 0 -0.9 );
    }
    outlet
    {
        type               zeroGradient;
    }
    // outlet
    // {
    //     type            inletOutlet;
    //     inletValue      $internalField;
    //     value           $internalField;
    //     // type            pressureInletOutletVelocity;
    //     // value           uniform (0 0 0);
    // }
    intersection-wall
    {
        type            noSlip;
    }

}


// ************************************************************************* //
