/*--------------------------------*- C++ -*----------------------------------*\
| =========                 |                                                 |
| \\      /  F ield         | OpenFOAM: The Open Source CFD Toolbox           |
|  \\    /   O peration     | Version:  v2312                                 |
|   \\  /    A nd           | Website:  www.openfoam.com                      |
|    \\/     M anipulation  |                                                 |
\*---------------------------------------------------------------------------*/
FoamFile
{
    version     2.0;
    format      ascii;
    class       dictionary;
    object      changeDictionaryDict;
}
// * * * * * * * * * * * * * * * * * * * * * * * * * * * * * * * * * * * * * //


boundary
{
    "wall-unutra*"
    {
        type            wall;
    }
	"wall-vani*"
    {
        type            wall;
    }
	wedge-wall
	{
	    type	        wall;
	}
    wedge-wall-coolant
	{
	    type	        wall;
	}
    intersection-wall
    {
        //type            mappedWall;
        type            mappedPatch;
        sampleMode      nearestPatchFaceAMI;
        sampleRegion    fluid-domena;
        samplePatch     intersection-wall;
    }
    
}

T
{
    internalField   uniform 300;

    boundaryField
    {
        ".*"
        {
            type            externalWallHeatFluxTemperature;
            value           uniform 300;
            Ta              uniform 300;
            h               uniform 20;
            kappaMethod     solidThermo;
            kappa           none;
            mode            coefficient;	
        }
        "wall-unutra*"
        {
            type            externalWallHeatFluxTemperature;
            value           uniform 700;
            Ta              uniform 300;
            h               uniform 20;
            kappaMethod     solidThermo;
            kappa           none;
            mode            coefficient;
        }
        intersection-wall
        {
            type            compressible::turbulentTemperatureCoupledBaffleMixed;
            Tnbr            T;
            kappaMethod     solidThermo;
            kappaName       none;
            value           uniform 300;
        }
        
    }
}


// ************************************************************************* //
