/*--------------------------------*- C++ -*----------------------------------*\
| =========                 |                                                 |
| \\      /  F ield         | OpenFOAM: The Open Source CFD Toolbox           |
|  \\    /   O peration     | Version:  2.3.1                                 |
|   \\  /    A nd           | Web:      www.OpenFOAM.org                      |
|    \\/     M anipulation  |                                                 |
\*---------------------------------------------------------------------------*/
FoamFile
{
    version     2.0;
    format      ascii;
    class       volScalarField;
    location    "0/solid-domena";
    object      rho;
}
// * * * * * * * * * * * * * * * * * * * * * * * * * * * * * * * * * * * * * //

dimensions      [1 -3 0 0 0 0 0];

internalField   uniform 2700;

boundaryField
{

    wall-unutra
    {
        type            calculated;
        value           uniform 2700;
    }
    wall-unutra-ref
    {
        type            calculated;
        value           uniform 2700;
    }
    wall-vani
    {
        type            calculated;
        value           uniform 2700;
    }
    wall-vani-ref
    {
        type            calculated;
        value           uniform 2700;
    }
    intersection-wall
    {
        type            calculated;
        value           uniform 2700;
    }
    symmetry2
    {
        type            cyclicAMI;

    }
    symmetry1
    {
        type            cyclicAMI;

    }

}


// ************************************************************************* //
