/*--------------------------------*- C++ -*----------------------------------*\
| =========                 |                                                 |
| \\      /  F ield         | OpenFOAM: The Open Source CFD Toolbox           |
|  \\    /   O peration     | Version:  2.3.1                                 |
|   \\  /    A nd           | Web:      www.OpenFOAM.org                      |
|    \\/     M anipulation  |                                                 |
\*---------------------------------------------------------------------------*/
FoamFile
{
    version     2.0;
    format      ascii;
    class       volScalarField;
    location    "0/solid-domena";
    object      k;
}
// * * * * * * * * * * * * * * * * * * * * * * * * * * * * * * * * * * * * * //

dimensions      [0 2 -2 0 0 0 0];

internalField   uniform 237;

boundaryField
{
    wall-unutra
    {
        type            calculated;
        value           uniform 237;
    }
    wall-unutra-ref
    {
        type            calculated;
        value           uniform 237;
    }
    wall-vani
    {
        type            calculated;
        value           uniform 237;
    }
    wall-vani-ref
    {
        type            calculated;
        value           uniform 237;
    }
    intersection-wall
    {
        type            calculated;
        value           uniform 0;
    }
    symmetry2
    {
        type            cyclicAMI;

    }
    symmetry1
    {
        type            cyclicAMI;

    }
}


// ************************************************************************* //
