/*--------------------------------*- C++ -*----------------------------------*\
| =========                 |                                                 |
| \\      /  F ield         | OpenFOAM: The Open Source CFD Toolbox           |
|  \\    /   O peration     | Version:  2.3.1                                 |
|   \\  /    A nd           | Web:      www.OpenFOAM.org                      |
|    \\/     M anipulation  |                                                 |
\*---------------------------------------------------------------------------*/
FoamFile
{
    version     2.0;
    format      ascii;
    class       volScalarField;
    location    "0/solid-domena";
    object      p;
}
// * * * * * * * * * * * * * * * * * * * * * * * * * * * * * * * * * * * * * //

dimensions      [1 -1 -2 0 0 0 0];

internalField   uniform 28e5;

boundaryField
{
    wall-unutra
    {
        type            calculated;
        value           uniform 28e5;
    }
    wall-unutra-ref
    {
        type            calculated;
        value           uniform 28e5;
    }
    wall-vani
    {
        type            calculated;
        value           uniform 1e5;
    }
    wall-vani-ref
    {
        type            calculated;
        value           uniform 1e5;
    }
    intersection-wall
    {
        type            calculated;
        value           uniform 50e5;
    }
    symmetry1
    {
        type            cyclicAMI;

    }
    symmetry2
    {
        type            cyclicAMI;

    }
}


// ************************************************************************* //
