/*--------------------------------*- C++ -*----------------------------------*\
| =========                 |                                                 |
| \\      /  F ield         | OpenFOAM: The Open Source CFD Toolbox           |
|  \\    /   O peration     | Version:  v2312                                 |
|   \\  /    A nd           | Website:  www.openfoam.com                      |
|    \\/     M anipulation  |                                                 |
\*---------------------------------------------------------------------------*/
FoamFile
{
    version     2.0;
    format      ascii;
    class       volScalarField;
    location    "0";
    object      epsilon;
}
// * * * * * * * * * * * * * * * * * * * * * * * * * * * * * * * * * * * * * //

dimensions      [0 2 -3 0 0 0 0];

internalField   uniform 1.76;

boundaryField
{
    inlet
    {
        type            inletOutlet;
        inletValue      uniform 1.76;
        value           uniform 1.76;
    }

    outlet
    {
        type            inletOutlet;
        inletValue      uniform 1.76;
        value           uniform 1.76;
    }

    front
    {
        type            wedge;
    }
    back
    {
        type            wedge;
    }

    wall
    {
        type            epsilonWallFunction;
        Cmu             0.09;
        kappa           0.41;
        E               9.8;
        value           uniform 1.76;
    }
}


// ************************************************************************* //
