/*--------------------------------*- C++ -*----------------------------------*\
| =========                 |                                                 |
| \\      /  F ield         | OpenFOAM: The Open Source CFD Toolbox           |
|  \\    /   O peration     | Version:  2412                                  |
|   \\  /    A nd           | Website:  www.openfoam.com                      |
|    \\/     M anipulation  |                                                 |
\*---------------------------------------------------------------------------*/
FoamFile
{
    version     2.0;
    format      ascii;
    arch        "LSB;label=32;scalar=64";
    class       volScalarField;
    location    "0/fluid-domena";
    object      k;
}
// * * * * * * * * * * * * * * * * * * * * * * * * * * * * * * * * * * * * * //

dimensions      [ 0 2 -2 0 0 0 0 ];

internalField   uniform 0;

boundaryField
{
    inlet
    {
        type            turbulentIntensityKineticEnergyInlet;
        intensity       0.05;       // 5% turbulence intensity
        U               U;
        value           uniform 0.00375;
        //type            fixedValue;
        //value           uniform 0;
    }
    /*
    {
        type            compressible::kqRWallFunction;
        value           uniform 0.1;
    }*/
    outlet
    {
        type            zeroGradient;
    }
    intersection-wall
    {
        type            fixedValue;
        value           uniform 0;
    }
    wall-outlet
    {
        type            fixedValue;
        value           uniform 0;
    }
}


// ************************************************************************* //
