/*--------------------------------*- C++ -*----------------------------------*\
| =========                 |                                                 |
| \\      /  F ield         | OpenFOAM: The Open Source CFD Toolbox           |
|  \\    /   O peration     | Version:  2.3.1                                 |
|   \\  /    A nd           | Web:      www.OpenFOAM.org                      |
|    \\/     M anipulation  |                                                 |
\*---------------------------------------------------------------------------*/
FoamFile
{
    version     2.0;
    format      ascii;
    class       dictionary;
    object      changeDictionaryDict;
}
// * * * * * * * * * * * * * * * * * * * * * * * * * * * * * * * * * * * * * //

dictionaryReplacement
{
    boundary
    {
        minY
        {
            type            patch;
        }
		maxY
        {
            type            patch;
        }
		
		pipe_to_pipewall
		{
			//type            mappedWall;
			type            mappedPatch;
		    //sampleMode      nearestPatchFace;
		    sampleMode      nearestPatchFaceAMI;
		    sampleRegion    pipewall;
		    samplePatch     pipewall_to_pipe;
		}
        
    }


    U
    {
        internalField   uniform (0 0 0);

        boundaryField
        {
			minY
			{
        type            fixedValue;
        value           uniform (0 0.01 0);
			}
			maxY
			{
				type	zeroGradient;
			}
			
            pipe_to_pipewall
            {
        type            fixedValue;
        value           uniform (0 0 0);
            }
        }
    }

    T
    {
        internalField   uniform 300;

        boundaryField
        {
			minY
            {
                type            fixedValue;//zeroGradient;
				value			401;
            }

			maxY
            {
                type            zeroGradient;
            }

            pipe_to_pipewall
            {
                type            compressible::turbulentTemperatureCoupledBaffleMixed;
                Tnbr            T;
                kappa           fluidThermo;
                kappaName       none;
                value           uniform 300;
            }
        }
    }

    epsilon
    {
        // Set the value on all bc to non-zero. Not used in simulation
        // since zeroGradient; only used in initialisation.
        internalField   uniform 0.01;

        boundaryField
        {
            ".*"
            {
                type            compressible::epsilonWallFunction;
                value           uniform 0.01;
            }
        }
    }

    k
    {
        internalField   uniform 0.1;

        boundaryField
        {
            ".*"
            {
                type            compressible::kqRWallFunction;
                value           uniform 0.1;
            }
        }
    }

    p_rgh
    {
        internalField   uniform 1e5;

        boundaryField
        {
			    minY
				{
				type            zeroGradient;
				} 
				
			    maxY
				{
					type            fixedValue;
					value           $internalField;
				}	
				
				".*"
				{
				    type            zeroGradient;
				    value           uniform 1e5;
				}
        }
    }

    p
    {
        internalField   uniform 1e5;

        boundaryField
        {
            ".*"
            {
                type            calculated;
                value           uniform 1e5;
            }
        }
    }
}

// ************************************************************************* //
