/*--------------------------------*- C++ -*----------------------------------*\
| =========                 |                                                 |
| \\      /  F ield         | OpenFOAM: The Open Source CFD Toolbox           |
|  \\    /   O peration     | Version:  2412                                  |
|   \\  /    A nd           | Website:  www.openfoam.com                      |
|    \\/     M anipulation  |                                                 |
\*---------------------------------------------------------------------------*/
FoamFile
{
    version     2.0;
    format      ascii;
    arch        "LSB;label=32;scalar=64";
    class       volScalarField;
    location    "0/fluid-domena";
    object      epsilon;
}
// * * * * * * * * * * * * * * * * * * * * * * * * * * * * * * * * * * * * * //

dimensions      [ 0 2 -3 0 0 0 0 ];

internalField   uniform 0;

boundaryField
{
    inlet
    {
        type            fixedValue;
        value           uniform 0.015;
        //type            compressible::epsilonWallFunction;
        //value           uniform 0.01;
    }
    outlet
    {
        type            zeroGradient;
        //type            compressible::epsilonWallFunction;
        //value           uniform 0.01;
    }
    intersection-wall
    {
        //type            compressible::epsilonWallFunction;
        //value           uniform 0.01;
        type            epsilonWallFunction;  // No compressible:: prefix
        value           uniform 0;
    }
    wall-outlet
    {
        type            epsilonWallFunction;
        value           uniform 0;
        //type            compressible::epsilonWallFunction;
        //value           uniform 0.01;
    }
}


// ************************************************************************* //
