/*--------------------------------*- C++ -*----------------------------------*\
| =========                 |                                                 |
| \\      /  F ield         | OpenFOAM: The Open Source CFD Toolbox           |
|  \\    /   O peration     | Version:  2.3.1                                 |
|   \\  /    A nd           | Web:      www.OpenFOAM.org                      |
|    \\/     M anipulation  |                                                 |
\*---------------------------------------------------------------------------*/
FoamFile
{
    version     2.0;
    format      ascii;
    class       volScalarField;
    location    "0/solid-domena";
    object      cellToRegion;
}
// * * * * * * * * * * * * * * * * * * * * * * * * * * * * * * * * * * * * * //

dimensions      [0 0 0 0 0 0 0];

internalField   uniform 1;

boundaryField
{
    wall-unutra
    {
        type            calculated;
        value           uniform 0;
    }
    wall-unutra-ref
    {
        type            calculated;
        value           uniform 0;
    }
    wall-vani
    {
        type            calculated;
        value           uniform 0;
    }
    wall-vani-ref
    {
        type            calculated;
        value           uniform 0;
    }
    intersection-wall
    {
        type            calculated;
        value           uniform 0;
    }
    wedge-wall
    {
        type            zeroGradient;
    }
    wedge-wall-coolant
    {
        type            zeroGradient;
    }
}


// ************************************************************************* //
